/*--------------------------------*- C++ -*----------------------------------*\
  =========                 |
  \\      /  F ield         | OpenFOAM: The Open Source CFD Toolbox
   \\    /   O peration     | Website:  https://openfoam.org
    \\  /    A nd           | Version:  9
     \\/     M anipulation  |
\*---------------------------------------------------------------------------*/
FoamFile
{
    format      ascii;
    class       volScalarField;
    location    "0";
    object      htcConv;
}
// * * * * * * * * * * * * * * * * * * * * * * * * * * * * * * * * * * * * * //

dimensions      [1 0 -1 1 0 0 0];

internalField   uniform 0.0;

boundaryField
{
    inlet
    {
        type            turbulentMixingLengthDissipationRateInlet;
        mixingLength    0.02;
        value           uniform 2.0;
    }

    outlet
    {
        type            zeroGradient;
    }

    "(splitter.*)"
    {
        type            calculated;
        value           $internalField;
    }

    region0_to_wallFilmRegion_wallFilmFaces
    {
        type            calculated;
        value           $internalField;
    }

    outerWalls
    {
        type            calculated;
        value           $internalField;
    }
}


// ************************************************************************* //
