/*--------------------------------*- C++ -*----------------------------------*\
 =========                |
 \      /  F ield         | OpenFOAM: The Open Source CFD Toolbox
  \    /   O peration     | Website:  https://openfoam.org
   \  /    A nd           | Version:  9                                     
    \/     M anipulation  |
\*---------------------------------------------------------------------------*/
FoamFile
{
    format      ascii;
    class       volScalarField;
    object      N2;
}
// ************************************************************************* //

dimensions          [0 0 0 0 0 0 0];

internalField       uniform 0.767;

boundaryField
{
    inlet
    {
        type    fixedValue;
        value   $internalField;
    }

    outlet
    {
        type    zeroGradient;
    }

    "(splitter.*)"
    {
        type    zeroGradient;
    }

    region0_to_wallFilmRegion_wallFilmFaces
    {
        type    zeroGradient;
    }

    outerWalls
    {
        type    zeroGradient;
    }
}

// ************************************************************************* //
