/*--------------------------------*- C++ -*----------------------------------*\
 =========                |
 \      /  F ield         | OpenFOAM: The Open Source CFD Toolbox
  \    /   O peration     | Website:  https://openfoam.org
   \  /    A nd           | Version:  9                                     
    \/     M anipulation  |
\*---------------------------------------------------------------------------*/
FoamFile
{
    format      ascii;
    class       volScalarField;
    object      T;
}
// * * * * * * * * * * * * * * * * * * * * * * * * * * * * * * * * * * * * * //

dimensions      [0 0 0 1 0 0 0];

internalField   uniform 300.0;

boundaryField
{
    inlet
    {
        type            fixedValue;
        value           uniform 900.0;
    }

    outlet
    {
        type            zeroGradient;
    }

    "(splitter.*)"
    {
        type            fixedValue;
        value           uniform 350.0;
    }

    outerWalls
    {
        type            zeroGradient;
    }
}

// ************************************************************************* //
