FoamFile
{
    format      ascii;
    class       dictionary;
    object      controlDict;
}

application       rhoPimpleFoam;

startFrom         latestTime;

startTime         0;

stopAt            endTime;

endTime           5e-2;

deltaT            5e-5;

writeControl      adjustableRunTime;

writeInterval     5e-3;

purgeWrite        0;

writeFormat       ascii;

writePrecision    6;

writeCompression  off;

timeFormat        general;

timePrecision     6;

runTimeModifiable true;

adjustTimeStep    yes;

maxCo             5;

functions
{
    residuals
    {
        type    residuals;
        enabled yes;
        fields  (p U k epsilon h);
        libs    ("libutilityFunctionObjects.so");
    }    
}

