FoamFile
{
    format      ascii;
    class       volScalarField;
    object      alphat;
}

dimensions      [1 -1 -1 0 0 0 0];

internalField   uniform 0.0;

boundaryField
{
    inlet
    {
        type    calculated;
        value   uniform 0.0;
    }

    outlet
    {
        type    calculated;
        value   uniform 0.0;
    }

    "(splitterBottom|splitterFront|splitterLeft|splitterRear|splitterRight|splitterTop)"
    {
        type    compressible::alphatWallFunction;
        value   uniform 0.0;
    }

    outerWalls
    {
        type    compressible::alphatWallFunction;
        value   uniform 0.0;
    }
}

