FoamFile
{
    format      ascii;
    class       volVectorField;
    object      U;
}

dimensions      [0 1 -1 0 0 0 0];

internalField   uniform (0.0 0.0 0.0);

boundaryField
{
    inlet
    {
        type    fixedValue;
        value   uniform (0.0 10.0 0.0);
    }

    outlet
    {
        type    zeroGradient;
    }

    "(splitterBottom|splitterFront|splitterLeft|splitterRear|splitterRight|splitterTop)"
    {
        type    noSlip;
    }

    outerWalls
    {
        type    noSlip;
    }
}
