/*--------------------------------*- C++ -*----------------------------------*\
  =========                 |
  \\      /  F ield         | OpenFOAM: The Open Source CFD Toolbox
   \\    /   O peration     | Website:  https://openfoam.org
    \\  /    A nd           | Version:  9
     \\/     M anipulation  |
\*---------------------------------------------------------------------------*/
FoamFile
{
    version     2.0;
    format      ascii;
    class       dictionary;
    location    "system";
    object      fvSolution;
}
// * * * * * * * * * * * * * * * * * * * * * * * * * * * * * * * * * * * * * //

solvers
{
    "rho.*"
    {
        solver      diagonal;
        tolerance   1e-06;
        relTol      0.0;
    }
    
    p
    {
        solver      GAMG;
        smoother    GaussSeidel;
        tolerance   1e-06;
        relTol      1e-01;
    }

    pFinal
    {
        solver      GAMG;
        smoother    GaussSeidel;
        tolerance   1e-06;
        relTol      0.0;
    }    
    
    "(U|k|epsilon|h)"
    {
        solver      smoothSolver;
        smoother    symGaussSeidel;
        tolerance   1e-05;
        relTol      1e-01;
    }
 
   "(U|k|epsilon|h)Final"
    {
        solver      smoothSolver;
        smoother    symGaussSeidel;
        tolerance   1e-05;  
        relTol      0.0;
    }

    "(Yi|CO2|O2|N2|H2O|C7H16).*"
    {
        solver          PBiCGStab;
        preconditioner  DILU;
        tolerance       1e-06;
        relTol          0.0;
    }
}

PIMPLE
{
    nCorrectors                 2;
    nOuterCorrectors            150;
    nNonOrthogonalCorrectors    0;
    turbOnFinalInterOnly        false;
    consistent                  true;
    momentumPredictor           true;

    outerCorrectorResidualControl
    {
        p 
        {
            tolerance   5e-03;
            relTol      0.0;
        }

        U 
        {
            tolerance   5e-04;
            relTol      0.0;
        }

        h
        {
            tolerance   5e-04;
            relTol      0.0;
        }
    }

    residualControl
    {
        p   5e-03;
        U   5e-04;
        h   5e-04;
    }
}

relaxationFactors
{
    fields
    {
        "p.*"    0.3;
        "rho.*"  0.5;
    }
 
    equations
    {
        "(U|h).*"     0.5; // check h.*
        "(k|epsilon)" 0.5;
//        h             0.5;
    }
}

// ************************************************************************* //
