// Foam file definition --> this file sets the instructions for the generation of a blockmesh that is needed to fill all the space of our computational domain  
FoamFile
{
    format      ascii;
    class       dictionary;  
    object      blockMeshDict;
}


vertices
(
    (-0.12 -0.2995 -0.12)
    ( 0.12 -0.2995 -0.12)
    ( 0.12  0.4995 -0.12)
    (-0.12  0.4995 -0.12)
    (-0.12 -0.2995  0.12)
    ( 0.12 -0.2995  0.12)
    ( 0.12  0.4995  0.12)
    (-0.12  0.4995  0.12)
);

// important constraint: the blocks aspect ratio should be around 1
// using variables for [x, y, z] discretization
x_nblocks 10;
y_nblocks 33;
z_nblocks 10;

blocks 
(   
    hex (0 1 2 3 4 5 6 7) ($x_nblocks $y_nblocks $z_nblocks) simpleGrading (1 1 1) // setting the blocks for the snappyHexMesh procedure 
);

boundary // patches generation --> every patch has its normal vector due the vertices numbering sequence 
(
    inlet 
    {
        type patch;
        faces
        (
            (1 5 4 0)
        );
    }
    
    outlet
    {
        type patch;
        faces
        (   
            (3 7 6 2)
        );
    }
    
    lateral_patches
    {   
        type wall; 
        faces
        (
            (1 2 6 5)
            (5 6 7 4)
            (0 4 7 3)
            (0 3 2 1)
        );
    }
);
