/*--------------------------------*- C++ -*----------------------------------*\
 =========                |
 \      /  F ield         | OpenFOAM: The Open Source CFD Toolbox
  \    /   O peration     | Website:  https://openfoam.org
   \  /    A nd           | Version:  9                                     
    \/     M anipulation  |
\*---------------------------------------------------------------------------*/
FoamFile
{
    format      ascii;
    class       volScalarField;
    object      N2;
}
// ************************************************************************* //

dimensions          [0 0 0 0 0 0 0];

internalField       uniform 0.767;

boundaryField
{
    "(back|sides|outlet)"
    {
        type                zeroGradient;
    }

    "(inlet|fuel_inlet)"
    {
        type                fixedValue;
        value               $internalField;
    }

    region0_to_wallFilmRegion_wallFilmFaces
    {
        type                zeroGradient;
    }

    frontAndBack
    {
        type            empty;
    }
}

// ************************************************************************* //
