FoamFile
{
    format      ascii;
    class       dictionary;
    object      meshQualityDict;
}

// Include defaults parameters from master dictionary
#include "$WM_PROJECT_DIR/etc/caseDicts/meshQualityDict"

//- minFaceWeight (0 -> 0.5)
minFaceWeight 0.02;
